Version 4
SHEET 1 880 680
WIRE 544 128 208 128
WIRE 208 144 208 128
WIRE -304 192 -352 192
WIRE 144 192 -304 192
WIRE 336 208 304 208
WIRE 544 208 544 128
WIRE -32 224 -64 224
WIRE 144 224 -32 224
WIRE -304 272 -304 192
WIRE -32 272 -32 224
WIRE -304 400 -304 352
WIRE -32 400 -32 352
WIRE -32 400 -304 400
WIRE 208 400 208 272
WIRE 208 400 -32 400
WIRE 544 400 544 288
WIRE 544 400 208 400
WIRE 208 432 208 400
FLAG 336 208 Y
IOPIN 336 208 Out
FLAG 208 432 0
FLAG -352 192 A
IOPIN -352 192 In
FLAG -64 224 B
IOPIN -64 224 In
SYMBOL and_cmos 176 176 R0
SYMATTR InstName X1
SYMBOL voltage 544 192 R0
WINDOW 123 0 0 Left 0
WINDOW 39 0 0 Left 0
SYMATTR InstName V1
SYMATTR Value 1.5
SYMBOL voltage -32 256 R0
WINDOW 123 0 0 Left 0
WINDOW 39 0 0 Left 0
SYMATTR InstName V2
SYMATTR Value PULSE(0 1.5 0 5n 5n 250n 500n 10)
SYMBOL voltage -304 256 R0
WINDOW 123 0 0 Left 0
WINDOW 39 0 0 Left 0
SYMATTR InstName V3
SYMATTR Value PULSE(0 1.5 0 5n 5n 500n 1000n 5)
TEXT -584 -24 Left 2 !.include tsmc018.lib
TEXT -584 32 Left 2 !.tran 0 10u 0 100u
