Version 4
SHEET 1 880 680
WIRE 576 80 240 80
WIRE 240 112 240 80
WIRE 576 160 576 80
WIRE -48 192 -80 192
WIRE 144 192 -48 192
WIRE 384 192 352 192
WIRE -48 224 -48 192
WIRE -48 336 -48 304
WIRE 240 336 240 288
WIRE 240 336 -48 336
WIRE 576 336 576 240
WIRE 576 336 240 336
WIRE 240 368 240 336
FLAG 240 368 0
FLAG 384 192 Y
IOPIN 384 192 Out
FLAG -80 192 A
IOPIN -80 192 In
SYMBOL resistive_load_inverter 224 192 R0
SYMATTR InstName X2
SYMBOL voltage 576 144 R0
WINDOW 123 0 0 Left 0
WINDOW 39 0 0 Left 0
SYMATTR InstName V1
SYMATTR Value 1.5
SYMBOL voltage -48 208 R0
WINDOW 123 0 0 Left 0
WINDOW 39 0 0 Left 0
SYMATTR InstName V2
SYMATTR Value PULSE(0 1.5 0 5n 5n 500n 1000n 5)
TEXT -576 -72 Left 2 !.include tsmc018.lib
TEXT -576 -24 Left 2 !.tran 0 10u 0 100u
