Version 4
SHEET 1 880 680
WIRE 512 96 224 96
WIRE 224 112 224 96
WIRE 512 144 512 96
WIRE -32 192 -80 192
WIRE 128 192 -32 192
WIRE 368 192 336 192
WIRE -32 272 -32 192
WIRE -32 368 -32 352
WIRE 224 368 224 288
WIRE 224 368 -32 368
WIRE 512 368 512 224
WIRE 512 368 224 368
WIRE 224 400 224 368
FLAG 368 192 Y
IOPIN 368 192 Out
FLAG -80 192 A
IOPIN -80 192 In
FLAG 224 400 0
SYMBOL inverter_cmos 208 192 R0
SYMATTR InstName X1
SYMBOL voltage 512 128 R0
WINDOW 123 0 0 Left 0
WINDOW 39 0 0 Left 0
SYMATTR InstName V1
SYMATTR Value 1.5
SYMBOL voltage -32 256 R0
WINDOW 123 0 0 Left 0
WINDOW 39 0 0 Left 0
SYMATTR InstName V2
SYMATTR Value PULSE(0 1.5 0 5n 5n 500n 1000n 5)
TEXT -632 -120 Left 2 !.include tsmc018.lib
TEXT -632 -64 Left 2 !.tran 0 10u 0 100u
