Version 4
SHEET 1 880 680
WIRE 656 64 240 64
WIRE 240 96 240 64
WIRE -544 160 -592 160
WIRE 208 160 -544 160
WIRE 368 176 304 176
WIRE -320 192 -352 192
WIRE 208 192 -320 192
WIRE -96 208 -128 208
WIRE 160 208 -96 208
WIRE 656 208 656 64
WIRE -544 256 -544 160
WIRE -320 256 -320 192
WIRE -96 256 -96 208
WIRE 160 272 160 208
WIRE 256 272 256 224
WIRE 256 272 160 272
WIRE -544 384 -544 336
WIRE -320 384 -320 336
WIRE -320 384 -544 384
WIRE -96 384 -96 336
WIRE -96 384 -320 384
WIRE 240 384 240 256
WIRE 240 384 -96 384
WIRE 656 384 656 288
WIRE 656 384 240 384
WIRE 240 416 240 384
FLAG 240 416 0
FLAG 368 176 Y
IOPIN 368 176 Out
FLAG -592 160 A
IOPIN -592 160 In
FLAG -352 192 B
IOPIN -352 192 In
FLAG -128 208 S
IOPIN -128 208 In
SYMBOL 2x1_mux_cmos 240 144 R0
SYMATTR InstName X1
SYMBOL voltage 656 192 R0
WINDOW 123 0 0 Left 0
WINDOW 39 0 0 Left 0
SYMATTR InstName V1
SYMATTR Value 1.5
SYMBOL voltage -96 240 R0
WINDOW 123 0 0 Left 0
WINDOW 39 0 0 Left 0
SYMATTR InstName V2
SYMATTR Value PULSE(0 1.5 0 5n 5n 250n 500n 20)
SYMBOL voltage -320 240 R0
WINDOW 123 0 0 Left 0
WINDOW 39 0 0 Left 0
SYMATTR InstName V3
SYMATTR Value PULSE(0 1.5 0 5n 5n 500n 1000n 10)
SYMBOL voltage -544 240 R0
WINDOW 123 0 0 Left 0
WINDOW 39 0 0 Left 0
SYMATTR InstName V4
SYMATTR Value PULSE(0 1.5 0 5n 5n 1000n 2000n 5)
TEXT -952 -88 Left 2 !.include tsmc018.lib
TEXT -944 -40 Left 2 !.tran 0 10u 0 100u
