Version 4
SHEET 1 880 944
WIRE 160 32 -448 32
WIRE 208 32 160 32
WIRE 240 32 240 -32
WIRE 240 32 208 32
WIRE 272 32 240 32
WIRE 320 32 272 32
WIRE 528 32 320 32
WIRE -448 64 -448 32
WIRE -416 64 -448 64
WIRE 160 64 160 32
WIRE 320 64 320 32
WIRE -448 80 -448 64
WIRE 416 80 368 80
WIRE 208 112 208 32
WIRE 208 112 160 112
WIRE 272 112 272 32
WIRE 320 112 272 112
WIRE -416 128 -416 64
WIRE -416 128 -448 128
WIRE 112 144 16 144
WIRE -496 160 -544 160
WIRE 160 192 160 160
WIRE 240 192 160 192
WIRE 320 192 320 160
WIRE 320 192 240 192
WIRE 416 208 416 80
WIRE 416 208 -80 208
WIRE 240 224 240 192
WIRE 240 224 160 224
WIRE 320 224 240 224
WIRE -720 240 -848 240
WIRE -544 240 -544 160
WIRE -544 240 -720 240
WIRE -448 240 -448 176
WIRE 16 240 16 144
WIRE 16 240 -448 240
WIRE 160 256 160 224
WIRE 320 256 320 224
WIRE 528 256 528 32
WIRE 560 256 528 256
WIRE -448 272 -448 240
WIRE 384 272 368 272
WIRE 528 272 528 256
WIRE 208 304 208 112
WIRE 208 304 160 304
WIRE 272 304 272 112
WIRE 320 304 272 304
WIRE -416 320 -448 320
WIRE 560 320 560 256
WIRE 560 320 528 320
WIRE 112 336 -176 336
WIRE -544 352 -544 240
WIRE -496 352 -544 352
WIRE 480 352 432 352
WIRE -448 384 -448 368
WIRE -416 384 -416 320
WIRE -416 384 -448 384
WIRE 160 384 160 352
WIRE 240 384 160 384
WIRE 320 384 320 352
WIRE 320 384 240 384
WIRE 384 400 384 272
WIRE 384 400 -256 400
WIRE -720 432 -720 240
WIRE -176 432 -176 336
WIRE -176 432 -720 432
WIRE 240 432 240 384
WIRE 432 432 432 352
WIRE 432 432 240 432
WIRE 528 432 528 368
WIRE 672 432 528 432
WIRE -176 464 -176 432
WIRE 368 464 -176 464
WIRE 528 464 528 432
WIRE 240 480 240 432
WIRE 240 480 160 480
WIRE 320 480 240 480
WIRE -80 512 -80 208
WIRE -80 512 -848 512
WIRE 160 512 160 480
WIRE 320 512 320 480
WIRE 560 512 528 512
WIRE 368 528 368 464
WIRE 432 544 432 432
WIRE 480 544 432 544
WIRE 208 560 160 560
WIRE 320 560 272 560
WIRE 528 576 528 560
WIRE 560 576 560 512
WIRE 560 576 528 576
WIRE 16 592 16 240
WIRE 112 592 16 592
WIRE -256 640 -256 400
WIRE 368 640 -256 640
WIRE 160 656 160 608
WIRE 320 656 320 608
WIRE 368 672 368 640
WIRE 208 704 208 560
WIRE 208 704 160 704
WIRE 272 704 272 560
WIRE 320 704 272 704
WIRE -256 736 -256 640
WIRE -256 736 -848 736
WIRE -80 736 -80 512
WIRE 112 736 -80 736
WIRE -448 784 -448 384
WIRE 160 784 160 752
WIRE 160 784 -448 784
WIRE 208 784 208 704
WIRE 208 784 160 784
WIRE 240 784 208 784
WIRE 272 784 272 704
WIRE 272 784 240 784
WIRE 320 784 320 752
WIRE 320 784 272 784
WIRE 528 784 528 576
WIRE 528 784 320 784
WIRE 240 832 240 784
FLAG -848 240 S
IOPIN -848 240 In
FLAG -848 512 A
IOPIN -848 512 In
FLAG -848 736 B
IOPIN -848 736 In
FLAG 240 -32 Vdd
IOPIN 240 -32 In
FLAG 240 832 GND
IOPIN 240 832 In
FLAG 672 432 Y
IOPIN 672 432 Out
SYMBOL cmosp 112 64 R0
SYMATTR InstName M1
SYMATTR Value2 l=180n w=1u
SYMBOL cmosp 112 256 R0
SYMATTR InstName M2
SYMATTR Value2 l=180n w=1u
SYMBOL cmosp 368 160 R180
SYMATTR InstName M3
SYMATTR Value2 l=180n w=1u
SYMBOL cmosp 368 352 R180
SYMATTR InstName M4
SYMATTR Value2 l=180n w=1u
SYMBOL cmosn 112 512 R0
SYMATTR InstName M5
SYMATTR Value2 l=180n w=1u
SYMBOL cmosn 112 656 R0
SYMATTR InstName M6
SYMATTR Value2 l=180n w=1u
SYMBOL cmosn 368 608 R180
SYMATTR InstName M7
SYMATTR Value2 l=180n w=1u
SYMBOL cmosn 368 752 R180
SYMATTR InstName M8
SYMATTR Value2 l=180n w=1u
SYMBOL cmosn 480 464 R0
SYMATTR InstName M10
SYMATTR Value2 l=180n w=1u
SYMBOL cmosn -496 272 R0
SYMATTR InstName M12
SYMATTR Value2 l=180n w=1u
SYMBOL cmosp -496 80 R0
SYMATTR InstName M13
SYMATTR Value2 l=180n w=1u
SYMBOL cmosp 480 272 R0
SYMATTR InstName M11
SYMATTR Value2 l=180n w=1u
