Version 4
SHEET 1 880 680
WIRE 480 48 208 48
WIRE 208 96 208 48
WIRE -144 160 -192 160
WIRE 128 160 -144 160
WIRE 480 160 480 48
WIRE 320 176 304 176
WIRE 32 192 -16 192
WIRE 128 192 32 192
WIRE -144 224 -144 160
WIRE 32 224 32 192
WIRE -144 368 -144 304
WIRE 32 368 32 304
WIRE 32 368 -144 368
WIRE 208 368 208 256
WIRE 208 368 32 368
WIRE 480 368 480 240
WIRE 480 368 208 368
WIRE 208 416 208 368
FLAG 208 416 0
FLAG 320 176 Y
IOPIN 320 176 Out
FLAG -192 160 A
IOPIN -192 160 In
FLAG -16 192 B
IOPIN -16 192 In
SYMBOL cmos_NAND 208 144 R0
SYMATTR InstName X1
SYMBOL voltage 480 144 R0
WINDOW 123 0 0 Left 0
WINDOW 39 0 0 Left 0
SYMATTR InstName V1
SYMATTR Value 1.5
SYMBOL voltage 32 208 R0
WINDOW 123 0 0 Left 0
WINDOW 39 0 0 Left 0
SYMATTR InstName V2
SYMATTR Value PULSE(0 1.5 0 5n 5n 250n 500n 10)
SYMBOL voltage -144 208 R0
WINDOW 123 0 0 Left 0
WINDOW 39 0 0 Left 0
SYMATTR InstName V3
SYMATTR Value PULSE(0 1.5 0 5n 5n 500n 1000n 5)
TEXT -640 -104 Left 2 !.include tsmc018.lib
TEXT -640 -64 Left 2 !.tran 0 10u 0 100u
