Version 4
SHEET 1 1312 900
WIRE 656 128 320 128
WIRE 768 128 656 128
WIRE 960 128 768 128
WIRE 1248 128 960 128
WIRE 320 176 320 128
WIRE 656 192 656 128
WIRE -384 224 -464 224
WIRE 144 224 -384 224
WIRE 272 224 144 224
WIRE 432 240 400 240
WIRE 608 240 432 240
WIRE -176 256 -224 256
WIRE 224 256 -176 256
WIRE 272 256 224 256
WIRE 1056 256 736 256
WIRE 608 272 512 272
WIRE 848 320 656 320
WIRE 32 368 -32 368
WIRE 512 368 512 272
WIRE 512 368 32 368
WIRE -384 384 -384 224
WIRE 768 400 768 128
WIRE 768 400 656 400
WIRE 656 416 656 400
WIRE 1248 432 1248 128
WIRE 512 464 512 368
WIRE 592 464 512 464
WIRE 832 480 736 480
WIRE 432 496 432 240
WIRE 592 496 432 496
WIRE -176 512 -176 256
WIRE -176 560 -176 512
WIRE 656 560 656 544
WIRE 848 560 848 320
WIRE 848 560 656 560
WIRE 960 560 960 128
WIRE 832 592 832 480
WIRE 912 592 832 592
WIRE 1056 608 1008 608
WIRE 32 624 32 368
WIRE 912 624 832 624
WIRE 768 640 768 400
WIRE 768 640 656 640
WIRE 224 688 224 256
WIRE 592 688 224 688
WIRE 832 704 832 624
WIRE 832 704 736 704
WIRE 144 720 144 224
WIRE 592 720 144 720
WIRE -384 816 -384 464
WIRE -176 816 -176 592
WIRE -176 816 -384 816
WIRE 32 816 32 704
WIRE 32 816 -176 816
WIRE 320 816 320 304
WIRE 320 816 32 816
WIRE 656 816 656 768
WIRE 656 816 320 816
WIRE 848 816 848 560
WIRE 848 816 656 816
WIRE 960 816 960 656
WIRE 960 816 848 816
WIRE 1248 816 1248 512
WIRE 1248 816 960 816
WIRE 656 880 656 816
FLAG 656 880 0
FLAG 1056 256 S
IOPIN 1056 256 Out
FLAG 1056 608 Cout
IOPIN 1056 608 Out
FLAG -464 224 A
IOPIN -464 224 In
FLAG -224 256 B
IOPIN -224 256 In
FLAG -32 368 Cin
IOPIN -32 368 In
SYMBOL xor_cmos 288 208 R0
SYMATTR InstName X2
SYMBOL xor_cmos 624 224 R0
SYMATTR InstName X1
SYMBOL and_cmos 624 448 R0
SYMATTR InstName X3
SYMBOL and_cmos 624 672 R0
SYMATTR InstName X4
SYMBOL or_cmos 928 576 R0
SYMATTR InstName X5
SYMBOL voltage 1248 416 R0
WINDOW 123 0 0 Left 0
WINDOW 39 0 0 Left 0
SYMATTR InstName V1
SYMATTR Value 1.5
SYMBOL voltage 32 608 R0
WINDOW 123 0 0 Left 0
WINDOW 39 0 0 Left 0
SYMATTR InstName V2
SYMATTR Value PULSE(0 1.5 0 5n 5n 125n 250n 20)
SYMBOL voltage -176 496 R0
WINDOW 123 0 0 Left 0
WINDOW 39 0 0 Left 0
SYMATTR InstName V3
SYMATTR Value PULSE(0 1.5 0 5n 5n 250n 500n 10)
SYMBOL voltage -384 368 R0
WINDOW 123 0 0 Left 0
WINDOW 39 0 0 Left 0
SYMATTR InstName V4
SYMATTR Value PULSE(0 1.5 0 5n 5n 500n 1000n 5)
TEXT -1096 -192 Left 2 !.include tsmc018.lib
TEXT -1096 -128 Left 2 !.tran 0 10u 0 100u
