Version 4
SHEET 1 2580 772
WIRE 576 176 128 176
WIRE 752 176 576 176
WIRE 1040 176 752 176
WIRE 1408 176 1040 176
WIRE 576 224 576 176
WIRE -240 288 -416 288
WIRE 0 288 -240 288
WIRE 496 288 0 288
WIRE 800 304 672 304
WIRE 496 320 432 320
WIRE 128 352 128 176
WIRE 1040 352 1040 176
WIRE 1408 368 1408 176
WIRE 0 416 0 288
WIRE 48 416 0 416
WIRE 800 416 800 304
WIRE 960 416 800 416
WIRE 432 432 432 320
WIRE 432 432 224 432
WIRE 576 432 576 384
WIRE 720 432 576 432
WIRE 1216 432 1136 432
WIRE -240 448 -240 288
WIRE 48 448 0 448
WIRE 960 448 800 448
WIRE 752 464 752 176
WIRE 752 464 576 464
WIRE 576 496 576 464
WIRE 432 560 432 432
WIRE 496 560 432 560
WIRE 800 576 800 448
WIRE 800 576 672 576
WIRE -96 592 -416 592
WIRE 0 592 0 448
WIRE 0 592 -96 592
WIRE 496 592 0 592
WIRE -240 704 -240 528
WIRE -96 704 -96 672
WIRE -96 704 -240 704
WIRE 128 704 128 512
WIRE 128 704 -96 704
WIRE 576 704 576 656
WIRE 576 704 128 704
WIRE 592 704 576 704
WIRE 720 704 720 432
WIRE 720 704 592 704
WIRE 1040 704 1040 512
WIRE 1040 704 720 704
WIRE 1408 704 1408 448
WIRE 1408 704 1040 704
WIRE 592 752 592 704
FLAG -416 288 A
IOPIN -416 288 In
FLAG -416 592 B
IOPIN -416 592 In
FLAG 1216 432 Y
IOPIN 1216 432 Out
FLAG 592 752 0
SYMBOL cmos_NAND 128 400 R0
SYMATTR InstName X1
SYMBOL cmos_NAND 576 272 R0
SYMATTR InstName X2
SYMBOL cmos_NAND 576 544 R0
SYMATTR InstName X3
SYMBOL cmos_NAND 1040 400 R0
SYMATTR InstName X4
SYMBOL voltage 1408 352 R0
WINDOW 123 0 0 Left 0
WINDOW 39 0 0 Left 0
SYMATTR InstName V1
SYMATTR Value 1.5
SYMBOL voltage -96 576 R0
WINDOW 123 0 0 Left 0
WINDOW 39 0 0 Left 0
SYMATTR InstName V2
SYMATTR Value PULSE(0 1.5 0 5n 5n 250n 500n 10)
SYMBOL voltage -240 432 R0
WINDOW 123 0 0 Left 0
WINDOW 39 0 0 Left 0
SYMATTR InstName V3
SYMATTR Value PULSE(0 1.5 0 5n 5n 500n 1000n 5)
TEXT -648 -104 Left 2 !.include tsmc018.lib
TEXT -640 -40 Left 2 !.tran 0 5.5u 0 100u
TEXT 1584 -112 Left 2 !.meas TRAN DelayTime TRIG V(B)=0.75 TD=0 FALL=1 TARG V(Y)=0.75 TD=0 RISE=1
