Version 4
SHEET 1 880 680
WIRE 352 0 224 0
WIRE 736 0 352 0
WIRE 224 64 224 0
WIRE -768 112 -800 112
WIRE -48 112 -768 112
WIRE 176 112 -48 112
WIRE 400 128 304 128
WIRE -368 144 -400 144
WIRE -96 144 -368 144
WIRE 176 144 -96 144
WIRE 224 192 224 176
WIRE 736 192 736 0
WIRE 224 224 224 192
WIRE 592 224 224 224
WIRE -768 272 -768 112
WIRE -368 272 -368 144
WIRE 352 272 352 0
WIRE 352 272 224 272
WIRE 224 336 224 272
WIRE -48 384 -48 112
WIRE 160 384 -48 384
WIRE 368 400 304 400
WIRE -96 416 -96 144
WIRE 160 416 -96 416
WIRE -768 496 -768 352
WIRE -368 496 -368 352
WIRE -368 496 -768 496
WIRE 224 496 224 464
WIRE 224 496 -368 496
WIRE 592 496 592 224
WIRE 592 496 224 496
WIRE 736 496 736 272
WIRE 736 496 592 496
WIRE 224 528 224 496
FLAG -800 112 A
IOPIN -800 112 In
FLAG -400 144 B
IOPIN -400 144 In
FLAG 400 128 S
IOPIN 400 128 Out
FLAG 368 400 C
IOPIN 368 400 Out
FLAG 224 528 0
SYMBOL xor_cmos 192 96 R0
SYMATTR InstName X1
SYMBOL and_cmos 192 368 R0
SYMATTR InstName X2
SYMBOL voltage 736 176 R0
WINDOW 123 0 0 Left 0
WINDOW 39 0 0 Left 0
SYMATTR InstName V1
SYMATTR Value 1.5
SYMBOL voltage -368 256 R0
WINDOW 123 0 0 Left 0
WINDOW 39 0 0 Left 0
SYMATTR InstName V2
SYMATTR Value PULSE(0 1.5 0 5n 5n 250n 500n 10)
SYMBOL voltage -768 256 R0
WINDOW 123 0 0 Left 0
WINDOW 39 0 0 Left 0
SYMATTR InstName V3
SYMATTR Value PULSE(0 1.5 0 5n 5n 500n 1000n 5)
TEXT -1352 -120 Left 2 !.include tsmc018.lib
TEXT -1352 -48 Left 2 !.tran 0 10u 0 100u
