Version 4
SHEET 1 960 756
WIRE 320 48 208 48
WIRE 544 48 320 48
WIRE 896 48 544 48
WIRE 208 80 208 48
WIRE -1168 144 -1200 144
WIRE 176 144 -1168 144
WIRE 384 160 272 160
WIRE -880 176 -928 176
WIRE 176 176 -880 176
WIRE 544 240 544 48
WIRE 224 256 224 208
WIRE 224 256 -1792 256
WIRE 208 272 208 240
WIRE 336 272 208 272
WIRE 896 288 896 48
WIRE 320 304 320 48
WIRE 320 304 208 304
WIRE 384 304 384 160
WIRE 512 304 384 304
WIRE 640 320 608 320
WIRE 512 336 384 336
WIRE 208 352 208 304
WIRE -2112 368 -2160 368
WIRE 560 368 -2112 368
WIRE -528 416 -544 416
WIRE 176 416 -528 416
WIRE -1792 432 -1792 256
WIRE -1792 432 -1840 432
WIRE -1584 432 -1792 432
WIRE 384 432 384 336
WIRE 384 432 272 432
WIRE -160 448 -192 448
WIRE 176 448 -160 448
WIRE -2112 480 -2112 368
WIRE -1792 480 -1792 432
WIRE -1168 480 -1168 144
WIRE -880 480 -880 176
WIRE -528 480 -528 416
WIRE -160 480 -160 448
WIRE -2112 624 -2112 560
WIRE -1792 624 -1792 560
WIRE -1792 624 -2112 624
WIRE -1168 624 -1168 560
WIRE -1168 624 -1792 624
WIRE -880 624 -880 560
WIRE -880 624 -1168 624
WIRE -528 624 -528 560
WIRE -528 624 -880 624
WIRE -160 624 -160 560
WIRE -160 624 -528 624
WIRE 208 624 208 512
WIRE 208 624 -160 624
WIRE 336 624 336 272
WIRE 336 624 208 624
WIRE 496 624 336 624
WIRE 544 624 544 400
WIRE 544 624 496 624
WIRE 896 624 896 368
WIRE 896 624 544 624
WIRE 496 656 496 624
WIRE -1584 752 -1584 432
WIRE 224 752 224 480
WIRE 224 752 -1584 752
FLAG 496 656 0
FLAG 640 320 Y
IOPIN 640 320 Out
FLAG -2160 368 S1
IOPIN -2160 368 In
FLAG -1840 432 S0
IOPIN -1840 432 In
FLAG -1200 144 A
IOPIN -1200 144 In
FLAG -928 176 B
IOPIN -928 176 In
FLAG -544 416 C
IOPIN -544 416 In
FLAG -192 448 D
IOPIN -192 448 In
SYMBOL 2x1_mux_cmos 208 128 R0
SYMATTR InstName X1
SYMBOL 2x1_mux_cmos 208 400 R0
SYMATTR InstName X2
SYMBOL 2x1_mux_cmos 544 288 R0
SYMATTR InstName X3
SYMBOL voltage 896 272 R0
WINDOW 123 0 0 Left 0
WINDOW 39 0 0 Left 0
SYMATTR InstName V1
SYMATTR Value 1.5
SYMBOL voltage -160 464 R0
WINDOW 123 0 0 Left 0
WINDOW 39 0 0 Left 0
SYMATTR InstName V2
SYMATTR Value PULSE(0 1.5 0 5n 5n 8000n 16000n 3)
SYMBOL voltage -528 464 R0
WINDOW 123 0 0 Left 0
WINDOW 39 0 0 Left 0
SYMATTR InstName V3
SYMATTR Value PULSE(0 1.5 0 5n 5n 4000n 8000n 6)
SYMBOL voltage -880 464 R0
WINDOW 123 0 0 Left 0
WINDOW 39 0 0 Left 0
SYMATTR InstName V4
SYMATTR Value PULSE(0 1.5 0 5n 5n 2000n 4000n 12)
SYMBOL voltage -1168 464 R0
WINDOW 123 0 0 Left 0
WINDOW 39 0 0 Left 0
SYMATTR InstName V5
SYMATTR Value PULSE(0 1.5 0 5n 5n 1000n 2000n 24)
SYMBOL voltage -1792 464 R0
WINDOW 123 0 0 Left 0
WINDOW 39 0 0 Left 0
SYMATTR InstName V7
SYMATTR Value PULSE(0 1.5 0 5n 5n 250n 500n 96)
SYMBOL voltage -2112 464 R0
WINDOW 123 0 0 Left 0
WINDOW 39 0 0 Left 0
SYMATTR InstName V8
SYMATTR Value PULSE(0 1.5 0 5n 5n 500n 1000n 48)
TEXT -2720 -296 Left 2 !.include tsmc018.lib
TEXT -2712 -216 Left 2 !.tran 0 50u 0 100u
